/*--------------------------------*- C++ -*----------------------------------*\
  =========                 |
  \\      /  F ield         | OpenFOAM: The Open Source CFD Toolbox
   \\    /   O peration     | Website:  https://openfoam.org
    \\  /    A nd           | Version:  dev
     \\/     M anipulation  |
\*---------------------------------------------------------------------------*/
FoamFile
{
    format      ascii;
    class       dictionary;
    note        "mesh decomposition control dictionary";
    object      decomposeParDict;
}
// * * * * * * * * * * * * * * * * * * * * * * * * * * * * * * * * * * * * * //

numberOfSubdomains  4;

decomposer      hierarchical;

distributor     zoltan;
libs            ("libzoltanDecomp.so");

// distributor     parMetis;
// libs            ("libparMetisDecomp.so");

hierarchicalCoeffs
{
    n           (4 1 1);
    order       xyz;
}

zoltanCoeffs
{
    lb_method   rcb;
}

// ************************************************************************* //
